9
0.10526315789473689
O 0.11228617463157894 0.0 0.0727732347631579
C 0.1688283697736842 0.0 1.409872819126316
C 1.4473397426842105 0.0 1.801494362536842
C 2.2346421238105263 0.0 0.5888005824210527
C 1.3566569550736842 0.0 -0.41971336807368426
H 1.4383986678894736 0.0 -1.4853399838210528
H 3.3026327970210527 0.0 0.5226197401631578
H 1.8215238618578948 0.0 2.8039788526947365
H -0.7713232717894737 0.0 1.9181600760789475
