9
0.4
O 0.078829122 0.0 0.0510391295
C 0.1776325803 0.0 1.4150006086
C 1.472930269 0.0 1.7649564678
C 2.2117164396 0.0 0.627037214
C 1.3649211656 0.0 -0.4136975786
H 1.5217883521 0.0 -1.4712686154
H 3.2905694286 0.0 0.7225376349
H 1.9993625987 0.0 2.7115156947999997
H -0.7245969560000001 0.0 1.9886194445
