9
0.021052631578947323
O 0.09761038515789473 0.0 0.06311049792105264
C 0.1752607908263158 0.0 1.4012155559684212
C 1.4572645847894736 0.0 1.8044316256947368
C 2.237737492231579 0.0 0.5919610034736843
C 1.3552281129684212 0.0 -0.4068201049157895
H 1.4528258257842106 0.0 -1.4698622996105264
H 3.304079533863158 0.0 0.5101113191105263
H 1.8046628092263157 0.0 2.8170293790105263
H -0.7521582191578947 0.0 1.9323796550263157
