9
0.3157894736842105
O 0.09741249042105263 0.0 0.06312586634210526
C 0.16111994872105265 0.0 1.4106938717578947
C 1.4578534268947367 0.0 1.8109701520105264
C 2.2477252817052635 0.0 0.5945690034736842
C 1.3542832708631578 0.0 -0.42742284175789474
H 1.4382039310473684 0.0 -1.2742189311894738
H 3.2285054286 0.0 0.5114713191105262
H 1.7815238618578948 0.0 2.741774642168421
H -0.5819085349473685 0.0 1.8339748129210527
