9
0.021052631578947323
O 0.09756006936842106 0.0 0.06318818213157895
C 0.1778942645105263 0.0 1.4020909243894737
C 1.454819111105263 0.0 1.8048330993789472
C 2.2383720185473686 0.0 0.5943570034736843
C 1.3533563234947368 0.0 -0.4088662101789474
H 1.4555460363105264 0.0 -1.4676484048736844
H 3.3194146917578946 0.0 0.5050001612157894
H 1.8030678618578948 0.0 2.8008750632210524
H -0.7553144296842105 0.0 1.930813549763158
