9
0.23157894736842108
O 0.097545122 0.03351873684210527 0.0632111295
C 0.1776325803 -0.026909473684210528 1.4022686086
C 1.454370269 0.012509894736842107 1.8037164678
C 2.2395684396 0.01251221052631579 0.594313214
C 1.3533011656 -0.026909473684210528 -0.4085575786
H 1.4559923521 -0.08419052631578948 -1.4717326154
H 3.3059054286 -0.010240421052631581 0.5060176349
H 1.8076585987 -0.010242736842105265 2.8136956948
H -0.751736956 -0.08418589473684213 1.9287274445
