9
0.18947368421052635
O 0.108777122 0.0 0.07051534002631579
C 0.18445931714210528 0.0 1.4032538717578948
C 1.447045216368421 0.0 1.7834674151684209
C 2.2180821238105266 0.0 0.5958631087368421
C 1.3570091656 0.0 -0.4027123154421053
H 1.5369336152578947 0.0 -1.4571260890842106
H 3.2773327970210526 0.0 0.4538706875315789
H 1.7485428092263158 0.0 2.8087750632210526
H -0.7054902191578948 0.0 1.996676497131579
