9
0.06315789473684208
O 0.097545122 0.0 0.0632111295
C 0.1776325803 -0.005618526315789471 1.4022686086
C 1.454370269 0.009157263157894734 1.8037164678
C 2.2395684396 -0.009157263157894734 0.594313214
C 1.3533011656 0.005618526315789471 -0.4085575786
H 1.4559923521 0.015874736842105257 -1.4717326154
H 3.3059054286 -0.01874147368421052 0.5060176349
H 1.8076585987 0.01874147368421052 2.8136956948
H -0.751736956 -0.01587663157894736 1.9287274445
