9
-0.4
O 0.09760912199999999 0.0 0.0631071295
C 0.15596458030000002 0.0 1.4122286086
C 1.459274269 0.0 1.8104964678
C 2.2315924396 0.0 0.592597214
C 1.3530411656 0.0 -0.38514957860000004
H 1.4788803521 0.0 -1.7255206154000002
H 3.3808454286 0.0 0.5019656348999999
H 1.7801665987 0.0 2.7416436947999996
H -0.5252209560000001 0.0 1.8023114445
