9
0.23157894736842108
O 0.07941480621052631 0.0 0.05176418213157895
C 0.16806142240526317 0.0 1.4337980822842105
C 1.445035321631579 0.0 1.8198806783263157
C 2.250642544863158 0.0 0.5793346876842106
C 1.378411270863158 0.0 -0.43071505228421053
H 1.524771299468421 0.0 -1.4921092469789474
H 3.318927112810526 0.0 0.491416582268421
H 1.7970291250157895 0.0 2.832321589536842
H -0.7410148507368421 0.0 2.0009499708157894
