9
0.27368421052631575
O 0.09773943778947368 0.0 0.06291281371052632
C 0.1810344750368421 0.0 1.399958713863158
C 1.4602052163684212 0.0 1.8182326783263156
C 2.2240149659157895 0.0 0.5948824771578948
C 1.354018218231579 0.0 -0.4125697891263158
H 1.4501902468368422 0.0 -1.4186378785578948
H 3.4815258496526313 0.0 0.49279047700526313
H 1.7479790197526315 0.0 2.647027484273684
H -0.7982441138947368 0.0 1.9558468129210527
