9
0.02105263157894738
O 0.09668217463157895 0.0 0.06265091897368422
C 0.18029742240526317 0.0 1.403914713863158
C 1.4526397426842106 0.0 1.8028964678
C 2.2381151764421054 0.0 0.5930664771578947
C 1.3558897971789474 0.0 -0.4067933680736842
H 1.4492089836789475 0.0 -1.4704669311894738
H 3.3041039549157896 0.0 0.5059679506894736
H 1.8068813355421052 0.0 2.8120700105894736
H -0.7533392717894737 0.0 1.9220190234473684
