9
0.231578947368421
O 0.097545122 0.033518736842105254 0.0632111295
C 0.1776325803 -0.026909473684210518 1.4022686086
C 1.454370269 0.012509894736842102 1.8037164678
C 2.2395684396 0.012512210526315787 0.594313214
C 1.3533011656 -0.026909473684210518 -0.4085575786
H 1.4559923521 -0.08419052631578945 -1.4717326154
H 3.3059054286 -0.010240421052631577 0.5060176349
H 1.8076585987 -0.010242736842105261 2.8136956948
H -0.751736956 -0.08418589473684208 1.9287274445
