9
0.31578947368421056
O 0.09409354305263158 0.0 0.06852586634210527
C 0.18580521187894738 0.0 1.4220212401789474
C 1.4715713216315789 0.0 1.793611204642105
C 2.241772650126316 0.0 0.574494266631579
C 1.3319569550736843 0.0 -0.4079796838631579
H 1.6149891942052632 0.0 -1.4537894575052632
H 3.318786481231579 0.0 0.6209302664789473
H 1.6973943881736842 0.0 2.8486756948
H -0.8328001138947368 0.0 1.7908348129210525
