9
0.18947368421052635
O 0.08867964831578948 0.0 0.057445445289473686
C 0.1776325803 0.0 1.408299555968421
C 1.4631618479473685 0.0 1.7853564678
C 2.2263753869684213 0.0 0.6098140561052632
C 1.358805376126316 0.0 -0.4109923154421053
H 1.4871588784157894 0.0 -1.471512825926316
H 3.2986410075473684 0.0 0.6085797401631579
H 1.898465756594737 0.0 2.765294642168421
H -0.7388811665263157 0.0 1.957097339236842
