9
0.231578947368421
O 0.09770954305263158 0.0 0.06295870844736842
C 0.18051110661578948 0.0 1.4003140822842106
C 1.4593075321578948 0.0 1.815999415168421
C 2.2264078080210528 0.0 0.5947948982105263
C 1.3539079024421052 0.0 -0.4119525259684211
H 1.4510828784157894 0.0 -1.4268062996105264
H 3.454507323336842 0.0 0.49482542437368415
H 1.757160493436842 0.0 2.6726687474315787
H -0.7910891665263158 0.0 1.951674602394737
