9
0.18947368421052635
O 0.09746554305263158 0.0 0.06315997160526317
C 0.16772500135263158 0.0 1.407323766494737
C 1.4564601637368422 0.0 1.8080686783263158
C 2.244462544863158 0.0 0.5944666876842105
C 1.3538904287578948 0.0 -0.4198767364947369
H 1.445319299468421 0.0 -1.3532244048736843
H 3.2594654286 0.0 0.5092898454263157
H 1.7919777565947368 0.0 2.7705430632210524
H -0.649839903368421 0.0 1.8718758655526315
