9
0.2736842105263158
O 0.097545122 0.03961305263157895 0.0632111295
C 0.1776325803 -0.031802105263157895 1.4022686086
C 1.454370269 0.01478442105263158 1.8037164678
C 2.2395684396 0.014787157894736844 0.594313214
C 1.3533011656 -0.031802105263157895 -0.4085575786
H 1.4559923521 -0.0994978947368421 -1.4717326154
H 3.3059054286 -0.012102315789473685 0.5060176349
H 1.8076585987 -0.012105052631578947 2.8136956948
H -0.751736956 -0.09949242105263159 1.9287274445
