9
0.35789473684210527
O 0.09739480621052632 0.0 0.06311449792105264
C 0.15891826451052632 0.0 1.4118172401789475
C 1.4583178479473684 0.0 1.8119373099052631
C 2.248812860652632 0.0 0.5946031087368422
C 1.354414218231579 0.0 -0.4299382101789474
H 1.435832141573684 0.0 -1.247883773294737
H 3.2181854286 0.0 0.5121984770052631
H 1.7780392302789474 0.0 2.7321851684842104
H -0.5592647454736842 0.0 1.8213411287105263
