9
0.02105263157894738
O 0.10049333252631579 0.0 0.06512355055263158
C 0.17587173819473684 0.0 1.4037894507052633
C 1.452964163736842 0.0 1.8032720467473684
C 2.2385831764421056 0.0 0.5932106876842106
C 1.353972323494737 0.0 -0.41078873649473685
H 1.4524736152578948 0.0 -1.4744540890842106
H 3.3052509022842105 0.0 0.5093380559526315
H 1.810431651331579 0.0 2.8117523263789472
H -0.7556542191578948 0.0 1.9266139708157894
