9
0.2736842105263158
O 0.09767922726315789 0.0 0.06329597160526317
C 0.17322900135263158 0.0 1.4056349243894737
C 1.449504163736842 0.0 1.7889566783263158
C 2.2240149659157895 0.0 0.5958759508421053
C 1.354590218231579 0.0 -0.4139573680736842
H 1.448679509994737 0.0 -1.4035989311894739
H 3.476681639126316 0.0 0.49130984542631573
H 1.8633752302789475 0.0 2.9747232737473683
H -0.6925828507368421 0.0 1.8943882866052633
