9
0.06315789473684214
O 0.097545122 0.00023494736842105275 0.0632111295
C 0.1776325803 -0.005047578947368424 1.4022686086
C 1.454370269 0.0042827368421052645 1.8037164678
C 2.2395684396 0.0042827368421052645 0.594313214
C 1.3533011656 -0.005047578947368424 -0.4085575786
H 1.4559923521 0.030363789473684226 -1.4717326154
H 3.3059054286 -0.02311136842105264 0.5060176349
H 1.8076585987 -0.02311136842105264 2.8136956948
H -0.751736956 0.030363789473684226 1.9287274445
