9
0.021052631578947323
O 0.09653627989473684 0.0 0.06481197160526316
C 0.17923847503684212 0.0 1.4007654507052631
C 1.4538180584736842 0.0 1.8035208888526315
C 2.2399429659157897 0.0 0.5947746876842106
C 1.353963270863158 0.0 -0.4105855786
H 1.4503910889421052 0.0 -1.4744604048736842
H 3.3070911128105265 0.0 0.5156207927947368
H 1.7984299671210526 0.0 2.816472536905263
H -0.7469851665263159 0.0 1.9325748129210527
