9
0.06315789473684214
O 0.09598133252631579 0.0 0.06219428739473685
C 0.17472415924736842 0.0 1.4068368191263159
C 1.461944163736842 0.0 1.7987667835894736
C 2.238130334336842 0.0 0.6032475297894737
C 1.3562897971789474 0.0 -0.4130733680736842
H 1.4417938257842104 0.0 -1.4787810364526317
H 3.3019826917578947 0.0 0.48705574016315784
H 1.7887447039631579 0.0 2.8178262211157894
H -0.7639491665263158 0.0 1.918633549763158
