9
0.231578947368421
O 0.08805270094736842 0.0 0.05704881371052632
C 0.20694584345789474 0.0 1.420375766494737
C 1.4353344795263159 0.0 1.7946964678
C 2.223582544863158 0.0 0.5805991087368422
C 1.3817761129684212 0.0 -0.38915126281052637
H 1.381375299468421 0.0 -1.4578100890842107
H 3.286089218073684 0.0 0.5054711085842105
H 1.799108703963158 0.0 2.7958131684842105
H -0.7693624296842105 0.0 1.8549348129210526
