9
0.4
O 0.097829122 0.0 0.0627751295
C 0.1826045803 0.0 1.3988926086
C 1.462898269 0.0 1.8249324677999998
C 2.2168364396 0.0 0.5951452140000001
C 1.3543491656 0.0 -0.4144215786
H 1.4475123521 0.0 -1.3941326154000002
H 3.5625814286 0.0 0.48668563489999994
H 1.7204345987 0.0 2.5701036948
H -0.819708956 0.0 1.9683634445
