9
0.23157894736842108
O 0.0918112272631579 0.0 0.05948270844736842
C 0.1669683697736842 0.0 1.4190187138631578
C 1.482141216368421 0.0 1.7855676256947368
C 2.2342953869684212 0.0 0.6270723718947369
C 1.3642594813894737 0.0 -0.42511547333684213
H 1.4039310889421053 0.0 -1.4975768259263158
H 3.291522060178947 0.0 0.4364906875315789
H 1.738307651331579 0.0 2.8288409579578944
H -0.796515061263158 0.0 1.891716497131579
