9
0.27368421052631575
O 0.07611838515789474 0.0 0.049682918973684216
C 0.16632121187894738 0.0 1.439530713863158
C 1.4433380584736841 0.0 1.8228196256947369
C 2.2526560185473685 0.0 0.5766113192631579
C 1.3829767445473684 0.0 -0.4347436838631579
H 1.5372765626263158 0.0 -1.4958140890842107
H 3.321294691757895 0.0 0.48876184542631573
H 1.795096493436842 0.0 2.8357081158526314
H -0.7390653770526316 0.0 2.014081339236842
