9
0.4
O 0.078377122 0.0 0.0936271295
C 0.20814458030000002 0.0 1.3737086086
C 1.443878269 0.0 1.8000004678
C 2.2466844396 0.0 0.603081214
C 1.3658811656 0.0 -0.44708957860000004
H 1.3495683521 0.0 -1.5235606154
H 3.3284334286 0.0 0.6884776348999999
H 1.6323145987 0.0 2.8664556948
H -0.661452956 0.0 2.0018274445
