9
0.4
O 0.121257122 0.0 0.07863112950000001
C 0.19204458030000002 0.0 1.4043486086
C 1.438906269 0.0 1.7609684678
C 2.1942084396 0.0 0.5975852140000001
C 1.3611291656 0.0 -0.3962175786
H 1.6268683521 0.0 -1.4408966154
H 3.2455854286 0.0 0.39592963489999994
H 1.6828585987 0.0 2.8033076948
H -0.6541049560000001 0.0 2.0721754445
