9
-0.4
O 0.113941122 0.0 0.0738551295
C 0.1270005803 0.0 1.3709926086
C 1.487250269 0.0 1.8192964677999999
C 2.2671804396 0.0 0.6180012140000001
C 1.3041171656000001 0.0 -0.4420775786
H 1.5848763521 0.0 -1.4957806154000002
H 3.3401334286 0.0 0.5069616348999999
H 1.8224265987 0.0 2.8445836948
H -0.721292956 0.0 2.0561874445
