9
0.06315789473684208
O 0.09451859568421053 0.0 0.06801365581578947
C 0.18245026451052632 0.0 1.3977591349157894
C 1.4527136374210525 0.0 1.8031297309578946
C 2.2406920185473687 0.0 0.5956976350526316
C 1.3552874813894737 0.0 -0.4146415786
H 1.439188562626316 0.0 -1.4799159838210527
H 3.309462481231579 0.0 0.5348271085842105
H 1.7799727039631579 0.0 2.8220262211157894
H -0.7374815875789474 0.0 1.940269549763158
