9
0.3157894736842105
O 0.09749459568421052 0.0 0.0632932347631579
C 0.1947388960894737 0.0 1.3944054507052632
C 1.4504986900526315 0.0 1.7983638362210526
C 2.2458652817052633 0.0 0.5956679508421053
C 1.3535064287578948 0.0 -0.4270375786
H 1.4379228784157894 0.0 -1.271373668031579
H 3.2467422707052633 0.0 0.509216582268421
H 1.829362809226316 0.0 2.8705788526947367
H -0.9305653770526315 0.0 2.028529549763158
