9
0.1473684210526316
O 0.09761733252631578 0.0 0.06325681371052631
C 0.17526142240526316 0.0 1.4040812401789473
C 1.4517500584736842 0.0 1.7957688888526315
C 2.2311934922315793 0.0 0.5951546876842105
C 1.353995270863158 0.0 -0.41146515754736845
H 1.4520546678894737 0.0 -1.4350452469789474
H 3.3978618496526316 0.0 0.4980980559526315
H 1.8376598618578948 0.0 2.9004028526947367
H -0.7198847454736842 0.0 1.9102371287105264
