9
-0.4
O 0.116713122 0.0 0.032795129500000006
C 0.1471205803 0.0 1.4308286086
C 1.464862269 0.0 1.8074324678
C 2.2324524396000003 0.0 0.585545214
C 1.3407211656 0.0 -0.3700255786
H 1.5624163521 0.0 -1.4199046154000001
H 3.2833774286 0.0 0.32355763489999995
H 1.9830025987 0.0 2.7609356947999997
H -0.842020956 0.0 1.8556274445
