9
-0.4
O 0.041529121999999995 0.0 0.026875129500000004
C 0.21108858030000002 0.0 1.3733726086
C 1.481086269 0.0 1.8121604677999998
C 2.2582884396000003 0.0 0.615261214
C 1.3405491656 0.0 -0.36616557860000004
H 1.5228483521 0.0 -1.4200246154
H 3.3183414286 0.0 0.4429296348999999
H 1.7549705987 0.0 2.8506196947999998
H -0.677308956 0.0 1.9688834445
