9
0.4
O 0.098785122 0.0 0.06129912950000001
C 0.13256858030000002 0.0 1.3822606086
C 1.509362269 0.0 1.8173044677999999
C 2.2047804396000004 0.0 0.5496212140000001
C 1.3899131656000001 0.0 -0.37554557860000004
H 1.3958283521000001 0.0 -1.4361966154
H 3.2712134286 0.0 0.5837976349
H 1.7507385987 0.0 2.8770356948
H -0.759740956 0.0 1.9981194445
