9
0.35789473684210527
O 0.09772049042105263 0.0 0.06332207686842106
C 0.17187405398421055 0.0 1.406670713863158
C 1.4480069005789473 0.0 1.7844152046421051
C 2.2192292817052635 0.0 0.5963567929473684
C 1.3549868498105264 0.0 -0.41561884175789476
H 1.4464294047315789 0.0 -1.382634720663158
H 3.529228165442105 0.0 0.4867843717421052
H 1.8805188092263159 0.0 3.0242702211157892
H -0.6743815875789474 0.0 1.8838223918684212
