9
-0.4
O 0.109021122 0.0 0.045407129500000004
C 0.21728058030000003 0.0 1.3962166086
C 1.471774269 0.0 1.8658284678
C 2.1757844396 0.0 0.603745214
C 1.3426691656 0.0 -0.44714557860000004
H 1.4905643521 0.0 -1.5072886154
H 3.2388334286 0.0 0.49339363489999993
H 1.8463905987 0.0 2.8698916947999997
H -0.733168956 0.0 1.8827634445
