9
0.23157894736842108
O 0.097545122 0.0008614736842105264 0.0632111295
C 0.1776325803 -0.018507789473684214 1.4022686086
C 1.454370269 0.015703368421052633 1.8037164678
C 2.2395684396 0.015703368421052633 0.594313214
C 1.3533011656 -0.018507789473684214 -0.4085575786
H 1.4559923521 0.11133389473684212 -1.4717326154
H 3.3059054286 -0.08474168421052632 0.5060176349
H 1.8076585987 -0.08474168421052632 2.8136956948
H -0.751736956 0.11133389473684212 1.9287274445
