9
0.18947368421052635
O 0.09763796410526315 0.0 0.06326986634210527
C 0.17458394872105265 0.0 1.4045991349157896
C 1.4510014268947369 0.0 1.7934981520105262
C 2.228800650126316 0.0 0.5953951087368421
C 1.3541935866526316 0.0 -0.4122958943894737
H 1.4509296152578948 0.0 -1.4245631417157896
H 3.4241351128105264 0.0 0.49583531911052625
H 1.846231651331579 0.0 2.925176326378947
H -0.7107841138947368 0.0 1.9049541813421054
