9
0.1473684210526316
O 0.09593438515789474 0.0 0.0656913400263158
C 0.1814464750368421 0.0 1.4114865033368422
C 1.4623974268947368 0.0 1.7990006783263157
C 2.2405970711789474 0.0 0.5850643718947369
C 1.3433405340210527 0.0 -0.4082878943894737
H 1.5301908784157894 0.0 -1.4633591417157896
H 3.311916586494737 0.0 0.559643529636842
H 1.7562019671210527 0.0 2.8300196948
H -0.7895664296842105 0.0 1.8643775497631578
