9
-0.4
O 0.073833122 0.0 0.0477911295
C 0.1632205803 0.0 1.4001886086
C 1.469834269 0.0 1.8464644678
C 2.2849284396000002 0.0 0.591041214
C 1.3454731656 0.0 -0.42089757860000004
H 1.2851163521 0.0 -1.5025686154000002
H 3.3662254286 0.0 0.6161056349
H 1.9324585987 0.0 2.8240836947999997
H -0.849368956 0.0 1.7852794445
