9
0.4
O 0.097377122 0.0 0.06310312950000001
C 0.15671658030000002 0.0 1.4129406086
C 1.458782269 0.0 1.8129044678
C 2.2499004396 0.0 0.594637214
C 1.3545451656 0.0 -0.4324535786
H 1.4334603521 0.0 -1.2215486154000001
H 3.2078654286 0.0 0.5129256349
H 1.7745545987 0.0 2.7225956948
H -0.536620956 0.0 1.8087074445
