9
0.35789473684210527
O 0.08039480621052632 0.0 0.09042544528947369
C 0.2049327908263158 0.0 1.3767149243894736
C 1.4449826900526315 0.0 1.8003916256947368
C 2.245935386968421 0.0 0.602158266631579
C 1.3645569550736842 0.0 -0.44303357860000003
H 1.3607708784157895 0.0 -1.5181050364526316
H 3.3260620601789475 0.0 0.6692713191105263
H 1.6507718618578948 0.0 2.8609020105894736
H -0.6709565349473684 0.0 1.9941327076578947
