9
0.31578947368421056
O 0.08276933252631578 0.0 0.053601655815789476
C 0.1776325803 0.0 1.4123201875473685
C 1.4690229005789475 0.0 1.7731164678
C 2.2175800185473684 0.0 0.6201479508421053
C 1.3624748498105264 0.0 -0.4126154733368421
H 1.5079365626263157 0.0 -1.4713662996105263
H 3.2937980601789474 0.0 0.6769544770052631
H 1.9590038618578949 0.0 2.733027273747368
H -0.7303106402105263 0.0 1.9760106023947368
