9
0.23157894736842108
O 0.09501396410526315 0.0 0.06710860318421052
C 0.18362584345789473 0.0 1.4167538717578947
C 1.4669843742631579 0.0 1.7963059414842104
C 2.241184860652632 0.0 0.579779319263158
C 1.3376487445473684 0.0 -0.4081337891263158
H 1.5725900363105263 0.0 -1.4585742996105264
H 3.315351533863158 0.0 0.5902868980578947
H 1.7267981776473684 0.0 2.8393476948
H -0.8111832717894737 0.0 1.8276061813421052
