9
0.10526315789473689
O 0.09261985884210526 0.0 0.06000797160526316
C 0.1776325803 0.0 1.4056191349157896
C 1.4592544795263158 0.0 1.7935164678
C 2.2322389659157897 0.0 0.6029247929473684
C 1.356359060336842 0.0 -0.4099102101789474
H 1.4733070889421054 0.0 -1.4716105101368422
H 3.301869639126316 0.0 0.5629965822684211
H 1.8581070197526317 0.0 2.786806221115789
H -0.7445948507368421 0.0 1.944488497131579
