9
0.35789473684210527
O 0.08868364831578947 0.0 0.05744902423684211
C 0.16115152766842106 0.0 1.4281551349157895
C 1.4972890058421053 0.0 1.7756682572736842
C 2.2314191764421056 0.0 0.6449410034736842
C 1.3702367445473684 0.0 -0.4341470522842106
H 1.3755340363105264 0.0 -1.511673668031579
H 3.283676586494737 0.0 0.3985668980578947
H 1.7004798618578947 0.0 2.8371020105894735
H -0.8209394823157895 0.0 1.8715287076578948
