9
0.06315789473684208
O 0.097545122 0.009141473684210522 0.0632111295
C 0.1776325803 -0.00733894736842105 1.4022686086
C 1.454370269 0.003411789473684209 1.8037164678
C 2.2395684396 0.0034124210526315776 0.594313214
C 1.3533011656 -0.00733894736842105 -0.4085575786
H 1.4559923521 -0.022961052631578938 -1.4717326154
H 3.3059054286 -0.002792842105263157 0.5060176349
H 1.8076585987 -0.002793473684210525 2.8136956948
H -0.751736956 -0.0229597894736842 1.9287274445
