9
0.06315789473684214
O 0.09758996410526316 0.0 0.06314228739473685
C 0.17841763293157895 0.0 1.401735555968421
C 1.4557167953157895 0.0 1.807066362536842
C 2.2359791764421053 0.0 0.5944445824210527
C 1.3534666392842105 0.0 -0.40948347333684215
H 1.454653404731579 0.0 -1.4594799838210528
H 3.346433218073684 0.0 0.5029652138473684
H 1.7938863881736842 0.0 2.7752338000631576
H -0.7624693770526316 0.0 1.9349857602894738
