9
0.10526315789473684
O 0.097545122 0.015235789473684211 0.0632111295
C 0.1776325803 -0.01223157894736842 1.4022686086
C 1.454370269 0.005686315789473683 1.8037164678
C 2.2395684396 0.005687368421052631 0.594313214
C 1.3533011656 -0.01223157894736842 -0.4085575786
H 1.4559923521 -0.03826842105263158 -1.4717326154
H 3.3059054286 -0.004654736842105263 0.5060176349
H 1.8076585987 -0.00465578947368421 2.8136956948
H -0.751736956 -0.03826631578947368 1.9287274445
