9
0.06315789473684208
O 0.09260049042105263 0.0 0.0600892347631579
C 0.17502226451052633 0.0 1.4108675559684212
C 1.4518243742631578 0.0 1.8081248888526316
C 2.242588650126316 0.0 0.590228161368421
C 1.3601493761263157 0.0 -0.41460052596842106
H 1.474750246836842 0.0 -1.477289878557895
H 3.3094567970210527 0.0 0.5020355296368421
H 1.804759651331579 0.0 2.818775484273684
H -0.7488127454736843 0.0 1.948424497131579
