9
0.18947368421052635
O 0.08846554305263157 0.0 0.07761870844736843
C 0.19208563293157896 0.0 1.3887401875473684
C 1.4494003742631578 0.0 1.8019562572736842
C 2.2429391764421056 0.0 0.5984664771578948
C 1.359260112968421 0.0 -0.4268095786
H 1.4055809836789475 0.0 -1.496282720663158
H 3.3165765864947367 0.0 0.5924460559526316
H 1.7246009144894736 0.0 2.838687273747368
H -0.7089708507368421 0.0 1.9633537602894737
