9
0.06315789473684208
O 0.0975350167368421 0.0 0.06322755055263159
C 0.18105384345789474 0.0 1.4006959770210528
C 1.4535959532105263 0.0 1.8026459414842104
C 2.2408278080210526 0.0 0.5945841613684211
C 1.353342218231579 0.0 -0.4122535786
H 1.452378457363158 0.0 -1.431660825926316
H 3.2940727970210526 0.0 0.5066574243736842
H 1.811999440805263 0.0 2.825072326378947
H -0.7875026402105263 0.0 1.9486878655526316
