9
0.31578947368421056
O 0.09852406936842105 0.0 0.06170165581578948
C 0.14205573819473685 0.0 1.3864728191263158
C 1.4977850058421052 0.0 1.8144438362210527
C 2.2121042290736845 0.0 0.5590300561052632
C 1.3822053761263158 0.0 -0.38249547333684214
H 1.408494457363158 0.0 -1.4436778785578948
H 3.2785170075473684 0.0 0.5674228980578947
H 1.7627217565947368 0.0 2.8637009579578945
H -0.7580559033684211 0.0 1.9835106023947369
