9
0.35789473684210527
O 0.06952554305263157 0.0 0.045520392657894745
C 0.1628407908263158 0.0 1.4509959770210528
C 1.4399435321578948 0.0 1.828697520431579
C 2.2566829659157897 0.0 0.5711645824210526
C 1.3921076919157895 0.0 -0.44280094702105266
H 1.5622870889421052 0.0 -1.5032237732947369
H 3.3260298496526315 0.0 0.4834523717421052
H 1.7912312302789475 0.0 2.8424811684842104
H -0.7351664296842105 0.0 2.0403440760789473
