9
0.31578947368421056
O 0.07282196410526315 0.0 0.04760165581578948
C 0.1645810013526316 0.0 1.4452633454421053
C 1.4416407953157895 0.0 1.8257585730631578
C 2.2546694922315793 0.0 0.5738879508421053
C 1.3875422182315789 0.0 -0.43877231544210527
H 1.5497818257842106 0.0 -1.4995189311894739
H 3.323662270705263 0.0 0.48610710858421047
H 1.7931638618578947 0.0 2.839094642168421
H -0.737115903368421 0.0 2.0272127076578945
