9
0.021052631578947323
O 0.09702385884210527 0.0 0.06287218213157895
C 0.1766631066157895 0.0 1.4037913454421054
C 1.4568949005789473 0.0 1.8020665730631578
C 2.2390890711789475 0.0 0.5972913192631579
C 1.3542973761263157 0.0 -0.41006284175789476
H 1.4512595099947367 0.0 -1.4740820890842106
H 3.3045978496526316 0.0 0.4996970033210526
H 1.8013539671210526 0.0 2.815072536905263
H -0.7558076928421052 0.0 1.9253628129210527
