9
0.23157894736842108
O 0.111273122 0.0 0.07213849792105263
C 0.18597636977368423 0.0 1.4034728191263157
C 1.4454174268947368 0.0 1.7789676256947369
C 2.213307386968421 0.0 0.5962075297894737
C 1.3578331656 0.0 -0.4014133680736842
H 1.5549205626263158 0.0 -1.4538801943473685
H 3.270983323336842 0.0 0.44228247700526313
H 1.7354059671210527 0.0 2.807681589536842
H -0.6952131665263158 0.0 2.0117762866052633
