9
0.06315789473684208
O 0.09685480621052632 0.0 0.06427407686842106
C 0.17926710661578948 0.0 1.4062191349157895
C 1.4578104795263158 0.0 1.801695415168421
C 2.2400092817052633 0.0 0.5903494245263158
C 1.3490323234947368 0.0 -0.4084419996526316
H 1.4877917205210527 0.0 -1.4681439838210528
H 3.308481639126316 0.0 0.5290001612157894
H 1.785605756594737 0.0 2.8206916948
H -0.7679495875789474 0.0 1.9011489181842105
