9
0.18947368421052635
O 0.092109122 0.0 0.07164460318421054
C 0.15885194872105263 0.0 1.4051353454421054
C 1.446126269 0.0 1.7742949941157895
C 2.2697819132842105 0.0 0.5898454245263158
C 1.3583373761263158 0.0 -0.39027905228421056
H 1.4396161415736841 0.0 -1.4548902996105264
H 3.337676375968421 0.0 0.5119974243736841
H 1.7893118618578947 0.0 2.787076536905263
H -0.7605323244210527 0.0 1.9504998655526316
