9
0.35789473684210527
O 0.06686996410526316 0.0 0.1104353400263158
C 0.1720386855631579 0.0 1.3626926086
C 1.4554367953157894 0.0 1.8083333099052632
C 2.234958755389474 0.0 0.5952330034736842
C 1.3917140077052632 0.0 -0.41956284175789477
H 1.5645167731526315 0.0 -1.4748928259263159
H 3.295211533863158 0.0 0.421536582268421
H 1.889308703963158 0.0 2.7890868526947368
H -0.7931346402105264 0.0 1.8281232339736841
