9
0.35789473684210527
O 0.09779922726315789 0.0 0.0628210242368421
C 0.18208121187894738 0.0 1.3992479770210526
C 1.4620005847894737 0.0 1.822699204642105
C 2.2192292817052635 0.0 0.5950576350526317
C 1.3542388498105264 0.0 -0.4138043154421053
H 1.4484049836789474 0.0 -1.4023010364526316
H 3.5355629022842106 0.0 0.488720582268421
H 1.7296160723842104 0.0 2.5957449579578946
H -0.812554008631579 0.0 1.9641912339736842
