9
0.1473684210526316
O 0.097545122 0.0 0.0632111295
C 0.1776325803 0.013055368421052633 1.4022686086
C 1.454370269 0.006360421052631579 1.8037164678
C 2.2395684396 -0.006360421052631579 0.594313214
C 1.3533011656 -0.013055368421052633 -0.4085575786
H 1.4559923521 0.07386105263157895 -1.4717326154
H 3.3059054286 0.052958315789473694 0.5060176349
H 1.8076585987 -0.05295978947368422 2.8136956948
H -0.751736956 -0.07386105263157895 1.9287274445
