9
0.10526315789473689
O 0.0885230167368421 0.0 0.07710060318421054
C 0.17598731714210528 0.0 1.3906286086
C 1.4546839532105262 0.0 1.805074362536842
C 2.2382126501263158 0.0 0.5945837403157895
C 1.364599060336842 0.0 -0.4117944207052632
H 1.4879112994684212 0.0 -1.4726620890842106
H 3.3027601654421055 0.0 0.48117026647894734
H 1.8316733355421053 0.0 2.806457800063158
H -0.7639127454736843 0.0 1.8991379708157894
