9
0.3157894736842105
O 0.09776933252631578 0.0 0.06286691897368421
C 0.18155784345789475 0.0 1.3996033454421053
C 1.4611029005789473 0.0 1.8204659414842104
C 2.2216221238105267 0.0 0.5949700561052632
C 1.3541285340210527 0.0 -0.41318705228421054
H 1.4492976152578947 0.0 -1.4104694575052632
H 3.508544375968421 0.0 0.49075552963684205
H 1.738797546068421 0.0 2.6213862211157894
H -0.8053990612631579 0.0 1.9600190234473684
