9
0.2736842105263158
O 0.07408764831578947 0.0 0.09932376107894739
C 0.1733548960894737 0.0 1.3720046086
C 1.4551858479473685 0.0 1.8072469941157894
C 2.2360433869684213 0.0 0.5950165824210527
C 1.3826756919157894 0.0 -0.41697336807368424
H 1.5389816152578948 0.0 -1.4741492469789474
H 3.2977277443894737 0.0 0.4414144770052631
H 1.8700969144894737 0.0 2.79487716848421
H -0.7833940086315789 0.0 1.8517948129210526
