9
0.2736842105263158
O 0.09750133252631579 0.0 0.06328228739473685
C 0.19245805398421054 0.0 1.3954538717578948
C 1.4510149005789474 0.0 1.799077520431579
C 2.245025702757895 0.0 0.5954873192631579
C 1.353479060336842 0.0 -0.4245735786
H 1.4403321415736843 0.0 -1.2980881943473686
H 3.2546306917578947 0.0 0.5087900559526315
H 1.8264689144894737 0.0 2.862994431642105
H -0.9067215875789474 0.0 2.015222602394737
