9
0.021052631578947323
O 0.09589691147368422 0.0 0.062170497921052635
C 0.17676247503684211 0.0 1.4051349243894737
C 1.4535216374210527 0.0 1.8051859414842104
C 2.2405751764421056 0.0 0.5929515297894737
C 1.3555839024421052 0.0 -0.4105718943894737
H 1.4622449836789473 0.0 -1.4735850364526317
H 3.3070892180736844 0.0 0.5046902664789473
H 1.8066922829105263 0.0 2.8153889579578943
H -0.7507622191578948 0.0 1.9352931287105264
