9
0.1473684210526316
O 0.09752154305263158 0.0 0.06324944528947368
C 0.18561552766842107 0.0 1.3985991349157896
C 1.4525635321578947 0.0 1.8012185730631578
C 2.2425069659157897 0.0 0.5949454245263158
C 1.3533969550736842 0.0 -0.41718157860000005
H 1.4475599310473684 0.0 -1.378231773294737
H 3.2782959549157895 0.0 0.5075104770052631
H 1.8177872302789473 0.0 2.8402411684842104
H -0.8351902191578947 0.0 1.9753017602894736
