9
0.1473684210526316
O 0.08491417463157895 0.0 0.08265639265789475
C 0.17532921187894737 0.0 1.3859726086
C 1.454809426894737 0.0 1.805617520431579
C 2.2376703343368423 0.0 0.5946919508421052
C 1.3691182182315789 0.0 -0.41308915754736847
H 1.5006788784157894 0.0 -1.473033878557895
H 3.3015020601789473 0.0 0.4712313191105263
H 1.8412792302789474 0.0 2.803562642168421
H -0.7687830612631579 0.0 1.8873021813421054
