9
0.27368421052631575
O 0.08632680621052631 0.0 0.05592839265789474
C 0.21227552766842106 0.0 1.4236679770210527
C 1.4318734268947368 0.0 1.7930564678
C 2.2206760185473686 0.0 0.5781056350526316
C 1.3869533761263158 0.0 -0.38562284175789474
H 1.367808562626316 0.0 -1.455278720663158
H 3.282486270705263 0.0 0.5053717401631579
H 1.7975541776473685 0.0 2.7925618000631576
H -0.7725670612631579 0.0 1.8415179708157894
