9
0.06315789473684208
O 0.09757606936842105 0.0 0.06323070844736843
C 0.17661636977368422 0.0 1.4030454507052632
C 1.4532473216315789 0.0 1.800310362536842
C 2.2359791764421053 0.0 0.5946738455789474
C 1.3535986392842105 0.0 -0.4098036838631579
H 1.4543047731526315 0.0 -1.4560094575052633
H 3.345315323336842 0.0 0.5026235296368421
H 1.8205162829105264 0.0 2.8508559053263154
H -0.7380860086315789 0.0 1.9208030234473685
