9
0.1473684210526316
O 0.09389627989473684 0.0 0.060838497921052635
C 0.1708462645105263 0.0 1.4129277664947368
C 1.4720426900526316 0.0 1.792167204642105
C 2.236212860652632 0.0 0.6151599508421053
C 1.3602746392842104 0.0 -0.4190944207052632
H 1.4228624573631579 0.0 -1.4881789311894738
H 3.296752375968421 0.0 0.46177321384736836
H 1.7635261776473685 0.0 2.823333589536842
H -0.7802321138947369 0.0 1.9051750234473683
