9
0.021052631578947323
O 0.098793122 0.0 0.06402270844736842
C 0.17839110661578947 0.0 1.4023780822842105
C 1.4535563742631579 0.0 1.8014665730631578
C 2.2371810711789477 0.0 0.5944854245263158
C 1.3537131656 0.0 -0.4079081049157895
H 1.4649858257842105 0.0 -1.470109668031579
H 3.302730691757895 0.0 0.500223529636842
H 1.8010901776473685 0.0 2.8131489579578948
H -0.7465984296842105 0.0 1.9362773392368422
