9
0.35789473684210527
O 0.097545122 0.05180168421052632 0.0632111295
C 0.1776325803 -0.04158736842105263 1.4022686086
C 1.454370269 0.019333473684210525 1.8037164678
C 2.2395684396 0.01933705263157895 0.594313214
C 1.3533011656 -0.04158736842105263 -0.4085575786
H 1.4559923521 -0.13011263157894737 -1.4717326154
H 3.3059054286 -0.015826105263157895 0.5060176349
H 1.8076585987 -0.015829684210526315 2.8136956948
H -0.751736956 -0.13010547368421052 1.9287274445
